data/irish_network/psse/WinterPeak2016.raw
0,   100.00          / PSS/E-30.3    MON, NOV 18 2013  18:12
AITYTFS Winter Peak 2016/17

    10,'F_M         ',  38.0000,1,     0.000,     0.000,   2,   1,1.06439, -14.4753,   2
    11,'FMN LOOP    ',  38.0000,1,     0.000,     0.000,   2,   1,1.07270, -12.4840,   2
    12,'BEDFORD     ',  38.0000,1,     0.000,     0.000,   1,   1,1.05806, -14.1006,   2
    13,'M_R         ',  38.0000,1,     0.000,     0.000,   1,   1,1.06420, -13.4498,   2
    14,'F_I         ',  38.0000,1,     0.000,     0.000,   2,   1,1.05765, -13.6958,   2
    15,'I_M         ',  38.0000,1,     0.000,     0.000,   2,   1,1.06671, -14.0822,   2
  1021,'ARDNACRU    ', 110.0000,1,     0.000,     0.000,   4,   1,1.05000,  -3.9288,   1
  1041,'AGHADA      ', 110.0000,1,     0.000,     0.000,   3,   1,1.04772,   0.3185,   1
  1042,'AGHADA      ', 220.0000,1,     0.000,     0.000,   3,   1,1.05000,   3.4722,   1
  1052,'AGHADA_B    ', 220.0000,1,     0.000,     0.000,   3,   1,1.05052,   3.3162,   1
  1061,'ARIGNA      ', 110.0000,1,     0.000,     0.000,   9,   1,1.04935, -10.7799,   2
  1062,'AGH_AT14    ', 220.0000,1,     0.000,     0.000,   3,   1,1.05000,   3.4722,   1
  1071,'AGANNYGA    ', 110.0000,1,     0.000,     0.000,   4,   1,1.06213,  -3.8438,   1
  1072,'AGHT2102    ', 220.0000,1,     0.000,     0.000,   3,   1,1.04995,   3.4571,   1
  1081,'AHANE       ', 110.0000,1,     0.000,     0.000,   7,   1,1.05125,  -3.7516,   2
  1091,'ADAMSTOW    ', 110.0000,1,     0.000,     0.000,   1,   1,1.03633, -12.4229,   2
  1101,'ANNER       ', 110.0000,1,     0.000,     0.000,   5,   1,1.06047,  -6.9653,   5
  1121,'ARKLOW      ', 110.0000,1,     0.000,     0.000,   6,   1,1.06851,  -6.5337,   1
  1122,'ARKLOW      ', 220.0000,1,     0.000,     0.000,   6,   1,1.06758,  -5.5319,   1
  1131,'ATHEA       ', 110.0000,1,     0.000,     0.000,   7,   1,1.04980,   2.8602,   4
  1141,'ATHLONE     ', 110.0000,1,     0.000,     0.000,   9,   1,1.06495,  -7.7301,   1
  1151,'ATHEA-2     ', 110.0000,1,     0.000,     0.000,   7,   1,1.04980,   2.8602,   1
  1161,'AUGHINIS    ', 110.0000,1,     0.000,     0.000,   7,   1,1.05000,   0.2714,   1
  1181,'ARVA        ', 110.0000,1,     0.000,     0.000,  10,   1,1.04376, -13.8987,   1
  1201,'ARTANE      ', 110.0000,1,     0.000,     0.000,   1,   1,1.06424,  -9.3312,   2
  1211,'BALLYVOU    ', 110.0000,1,     0.000,     0.000,   3,   1,1.04946,   3.4855,   1
  1212,'BALLYVOU    ', 220.0000,1,     0.000,     0.000,   3,   1,1.05660,   2.5718,   1
  1221,'ATHY        ', 110.0000,1,     0.000,     0.000,   8,   1,1.04819,  -8.4115,   1
  1231,'BALLYWAT    ', 110.0000,1,     0.000,     0.000,   6,   1,1.06881,  -5.6234,   4
  1251,'BOOLTIAG    ', 110.0000,1,     0.000,     0.000,   4,   1,1.05567,  -3.5475,   2
  1271,'BALTRASN    ', 110.0000,1,     0.000,     0.000,  10,   1,1.04659, -11.3836,   1
  1281,'BALLYLIC    ', 110.0000,1,     0.000,     0.000,   3,   1,1.04984,  -1.7011,   2
  1301,'BALLYBEG    ', 110.0000,1,     0.000,     0.000,   6,   1,1.06357,  -7.4469,   1
  1311,'CORDAL      ', 110.0000,1,     0.000,     0.000,   3,   1,1.05231,   4.2333,   1
  1321,'BLAKE       ', 110.0000,1,     0.000,     0.000,   8,   1,1.04885,  -9.6571,   2
  1341,'BINBANE     ', 110.0000,1,     0.000,     0.000,   9,   1,1.03740, -13.0814,   2
  1351,'BARODA      ', 110.0000,1,     0.000,     0.000,   8,   1,1.04765, -10.1267,   1
  1361,'BALLYDIN    ', 110.0000,1,     0.000,     0.000,   5,   1,1.05708,  -6.5911,   1
  1381,'BARNAHEL    ', 110.0000,1,     0.000,     0.000,   3,   1,1.04360,  -0.2851,   1
  1391,'BARNAHEL    ', 110.0000,1,     0.000,     0.000,   3,   1,1.04284,  -0.5416,   1
  1401,'BELLACOR    ', 110.0000,1,     0.000,     0.000,   9,   1,1.04808, -12.0988,   1
  1421,'BLACKROC    ', 110.0000,1,     0.000,     0.000,   1,   1,1.05592, -10.3096,   2
  1441,'BANDON      ', 110.0000,1,     0.000,     0.000,   3,   1,1.03640,  -2.2034,   1
  1451,'CLOGHRAN    ', 110.0000,1,     0.000,     0.000,   1,   1,1.05417,  -9.8136,   1
  1461,'BARRYMOR    ', 110.0000,1,     0.000,     0.000,   5,   1,1.04776,  -2.8145,   2
  1481,'BUTLERST    ', 110.0000,1,     0.000,     0.000,   5,   1,1.05922,  -5.6349,   1
  1492,'BALLAKEL    ', 220.0000,1,     0.000,     0.000,  10,   1,1.06412, -11.2431,   1
  1501,'BRINNY      ', 110.0000,1,     0.000,     0.000,   3,   1,1.03619,  -2.2161,   5
  1511,'KNOCKNAG    ', 110.0000,1,     0.000,     0.000,   7,   1,1.05000,   3.1574,   1
  1541,'BANOGE      ', 110.0000,1,     0.000,     0.000,   6,   1,1.06447,  -6.4526,   1
  1551,'BOGGERAG    ', 110.0000,1,     0.000,     0.000,   3,   1,1.05000,   4.8196,   1
  1571,'ARDNAGAP    ', 110.0000,1,     0.000,     0.000,   9,   1,1.01804, -14.4811,   2
  1581,'CABRA       ', 110.0000,1,     0.000,     0.000,   1,   1,1.06344,  -9.3892,   2
  1601,'CLASHAVO    ', 110.0000,1,     0.000,     0.000,   3,   1,1.05382,  -0.9812,   1
  1602,'CLASHAVO    ', 220.0000,1,     0.000,     0.000,   3,   1,1.05399,   2.1950,   1
  1611,'CLONKEEN    ', 110.0000,1,     0.000,     0.000,   7,   1,1.04600,  -2.2495,   1
  1621,'COOLROE     ', 110.0000,1,     0.000,     0.000,   3,   1,1.04810,  -1.3869,   1
  1631,'CORDERRY    ', 110.0000,1,     0.000,     0.000,   9,   1,1.05268, -10.6847,   1
  1641,'CASHLA      ', 110.0000,1,     0.000,     0.000,   9,   1,1.07281,  -6.4135,   1
  1642,'CASHLA      ', 220.0000,1,     0.000,     0.000,   9,   1,1.06929,  -4.2753,   1
  1651,'CLAHANE     ', 110.0000,1,     0.000,     0.000,   7,   1,1.05179,  -2.4582,   1
  1661,'CASTLEBA    ', 110.0000,1,     0.000,     0.000,   9,   1,1.05109, -11.6213,   1
  1681,'CARRIGAD    ', 110.0000,1,     0.000,     0.000,   3,   1,1.05612,  -1.2530,   1
  1691,'CENTRAL     ', 110.0000,1,     0.000,     0.000,   1,   1,1.05748, -10.1711,   1
  1701,'CATH_FAL    ', 110.0000,1,     0.000,     0.000,   9,   1,1.05000, -12.0150,   1
  1711,'CROMCAST    ', 110.0000,1,     0.000,     0.000,   1,   1,1.05840, -10.8534,   1
  1721,'CAHIR       ', 110.0000,1,     0.000,     0.000,   5,   1,1.06925,  -6.2146,   1
  1731,'CROMCAST    ', 110.0000,1,     0.000,     0.000,   1,   1,1.05840, -10.8534,   1
  1741,'CARRICKM    ', 110.0000,1,     0.000,     0.000,   2,   1,1.05759, -10.1297,   1
  1742,'CARRICKM    ', 220.0000,1,     0.000,     0.000,   2,   1,1.06829,  -6.7983,   1
  1761,'CLIFF       ', 110.0000,1,     0.000,     0.000,   9,   1,1.05023, -11.8099,   1
  1781,'CASTLEFA    ', 110.0000,1,     0.000,     0.000,   7,   1,1.04960,   0.2505,   5
  1791,'BRACKLON    ', 110.0000,1,     0.000,     0.000,   8,   1,1.04646,  -9.5218,   1
  1801,'COOKSTOW    ', 110.0000,1,     0.000,     0.000,   1,   1,1.06015,  -8.0919,   2
  1821,'CLOON       ', 110.0000,1,     0.000,     0.000,   9,   1,1.05935,  -8.4976,   1
  1831,'SCREEB      ', 110.0000,1,     0.000,     0.000,   9,   1,1.05251,  -7.7541,   2
  1841,'CRANE       ', 110.0000,1,     0.000,     0.000,   6,   1,1.06746,  -5.8164,   1
  1851,'CHERRYWO    ', 110.0000,1,     0.000,     0.000,   2,   1,1.05470, -10.2819,   1
  1861,'CARICKON    ', 110.0000,1,     0.000,     0.000,   9,   1,1.04906, -11.0627,   1
  1871,'COLLEGE     ', 110.0000,1,     0.000,     0.000,   2,   1,1.05651,  -9.6265,   1
  1881,'CHARLEVI    ', 110.0000,1,     0.000,     0.000,   3,   1,1.03071,  -4.1932,   1
  1891,'CAULSTOW    ', 110.0000,1,     0.000,     0.000,  10,   1,1.03897, -12.8556,   1
  1901,'CARLOW      ', 110.0000,1,     0.000,     0.000,   6,   1,1.05739,  -7.4072,   1
  1911,'CUILLEEN    ', 110.0000,1,     0.000,     0.000,   9,   1,1.06499,  -7.7311,   1
  1921,'COW CROS    ', 110.0000,1,     0.000,     0.000,   3,   1,1.04307,  -0.3935,   1
  1931,'CUNGHILL    ', 110.0000,1,     0.000,     0.000,   9,   1,1.05130, -11.4893,   4
  1941,'CUSHALIN    ', 110.0000,1,     0.000,     0.000,   8,   1,1.07500,  -6.7035,   1
  1951,'CARROWBE    ', 110.0000,1,     0.000,     0.000,   9,   1,1.04009, -12.4967,   1
  1961,'CASTLEVI    ', 110.0000,1,     0.000,     0.000,   3,   1,1.04312,  -0.7483,   1
  1971,'COOMAGEA    ', 110.0000,1,     0.000,     0.000,   7,   1,1.05000,   4.8885,   4
  1981,'CORRACLA    ', 110.0000,1,     0.000,     0.000,   9,   1,1.04570, -14.3072,   1
  1991,'CASTLEDO    ', 110.0000,1,     0.000,     0.000,   6,   1,1.06877,  -4.9688,   1
  2001,'CULLENAG    ', 110.0000,1,     0.000,     0.000,   5,   1,1.06245,  -5.0535,   1
  2002,'CULLENAG    ', 220.0000,1,     0.000,     0.000,   5,   1,1.06872,  -1.9656,   1
  2011,'KNOCKNAG    ', 110.0000,1,     0.000,     0.000,   3,   1,1.05618,  -1.2594,   1
  2021,'CITY WES    ', 110.0000,1,     0.000,     0.000,   1,   1,1.03449, -12.6450,   2
  2041,'CORDUFF     ', 110.0000,1,     0.000,     0.000,   2,   1,1.05703,  -9.5477,   1
  2042,'CORDUFF     ', 220.0000,1,     0.000,     0.000,   2,   1,1.07500,  -5.7613,   1
  2051,'BLACKPOO    ', 110.0000,1,     0.000,     0.000,   3,   1,1.03943,  -1.5889,   1
  2052,'CORDUFFB    ', 220.0000,1,     0.000,     0.000,   2,   1,1.07500,  -5.7613,   1
  2081,'DUNKETTL    ', 110.0000,4,     0.000,     0.000,   3,   1,1.00000,   0.0000,   5
  2090,'WEST GAL    ', 110.0000,1,     0.000,     0.000,   9,   1,1.05512,  -5.4272,   1
  2091,'WEST GAL    ', 110.0000,1,     0.000,     0.000,   9,   1,1.05976,  -7.2244,   1
  2101,'DUNDALK     ', 110.0000,1,     0.000,     0.000,  10,   1,1.04773, -14.0772,   2
  2111,'UGOOL       ', 110.0000,1,     0.000,     0.000,   9,   1,1.05000,  -4.7424,   1
  2121,'DRUMLINE    ', 110.0000,1,     0.000,     0.000,   4,   1,1.04874,  -4.9786,   1
  2131,'DROMADA     ', 110.0000,1,     0.000,     0.000,   3,   1,1.05000,   2.9492,   1
  2141,'DUNGARVA    ', 110.0000,1,     0.000,     0.000,   5,   1,1.04345,  -4.7949,   1
  2161,'DOON        ', 110.0000,1,     0.000,     0.000,   5,   1,1.06128,  -6.9147,   1
  2181,'DRYBRIDG    ', 110.0000,1,     0.000,     0.000,  10,   1,1.03832, -13.0750,   1
  2202,'DUNSTOWN    ', 220.0000,1,     0.000,     0.000,   2,   1,1.07030,  -5.4737,   1
  2204,'DUNSTOWN    ', 380.0000,1,     0.000,     0.000,   2,   1,1.04245,  -3.5308,   1
  2221,'DUNMANWA    ', 110.0000,1,     0.000,     0.000,   3,   1,1.04719,  -1.8079,   1
  2231,'DERRYBRI    ', 110.0000,1,     0.000,     0.000,   4,   1,1.06274,  -3.4343,   2
  2241,'DALLOW      ', 110.0000,1,     0.000,     0.000,   5,   1,1.06289,  -6.1759,   2
  2251,'DARDISTO    ', 110.0000,1,     0.000,     0.000,   1,   1,1.05912, -10.8180,   2
  2261,'DERRYIRO    ', 110.0000,1,     0.000,     0.000,   8,   1,1.04362,  -9.6184,   1
  2281,'DALTON      ', 110.0000,1,     0.000,     0.000,   9,   1,1.05733, -10.6908,   1
  2301,'DUNFIRTH    ', 110.0000,1,     0.000,     0.000,   8,   1,1.04654,  -9.9320,   2
  2321,'DRUMKEEN    ', 110.0000,1,     0.000,     0.000,   9,   1,1.04489, -13.8467,   1
  2361,'ENNIS       ', 110.0000,1,     0.000,     0.000,   4,   1,1.04917,  -4.9436,   1
  2391,'KILL HIL    ', 110.0000,1,     0.000,     0.000,   5,   1,1.06473,  -6.0307,   1
  2401,'MOUNTLUC    ', 110.0000,1,     0.000,     0.000,   8,   1,1.05512,  -7.1356,   1
  2411,'KNOCKMUL    ', 110.0000,1,     0.000,     0.000,   6,   1,1.06209,  -5.6199,   1
  2481,'FASS EAS    ', 110.0000,1,     0.000,     0.000,   2,   1,1.05316,  -8.3257,   2
  2491,'FASS WES    ', 110.0000,1,     0.000,     0.000,   2,   1,1.05349,  -8.3104,   2
  2521,'FLAGFORD    ', 110.0000,1,     0.000,     0.000,   9,   1,1.05041, -10.8884,   1
  2522,'FLAGFORD    ', 220.0000,1,     0.000,     0.000,   9,   1,1.05954,  -9.2158,   1
  2541,'FRN ST A    ', 110.0000,1,     0.000,     0.000,   1,   1,1.06595,  -9.8447,   2
  2551,'FRN ST B    ', 110.0000,1,     0.000,     0.000,   1,   1,1.06130, -10.1144,   2
  2561,'FIN_URBA    ', 110.0000,1,     0.000,     0.000,   2,   1,1.06595,  -9.1567,   2
  2562,'FINGLAS     ', 220.0000,1,     0.000,     0.000,   2,   1,1.07500,  -5.9785,   1
  2563,'FINGLAS2    ', 220.0000,1,     0.000,     0.000,   2,   1,1.07500,  -5.9785,   1
  2571,'FIN_RURA    ', 110.0000,1,     0.000,     0.000,   2,   1,1.06009, -10.6127,   2
  2581,'KILDONAN    ', 110.0000,1,     0.000,     0.000,   2,   1,1.05568,  -9.7138,   2
  2671,'GARVAGH     ', 110.0000,1,     0.000,     0.000,   9,   1,1.05263, -10.4822,   4
  2681,'GILRA       ', 110.0000,1,     0.000,     0.000,   9,   1,1.05241, -11.1771,   2
  2701,'GLASMORE    ', 110.0000,1,     0.000,     0.000,   1,   1,1.03725, -11.8735,   2
  2721,'GRIFFINR    ', 110.0000,1,     0.000,     0.000,   2,   1,1.05131,  -9.6689,   2
  2731,'GLANLEE     ', 110.0000,1,     0.000,     0.000,   7,   1,1.04986,   4.9092,   4
  2741,'GREAT IS    ', 110.0000,1,     0.000,     0.000,   6,   1,1.06662,  -5.2685,   1
  2742,'GREAT IS    ', 220.0000,1,     0.000,     0.000,   6,   1,1.07500,  -1.8858,   1
  2761,'GRANGE      ', 110.0000,1,     0.000,     0.000,   1,   1,1.05783, -10.8856,   2
  2771,'GARROW      ', 110.0000,1,     0.000,     0.000,   7,   1,1.04940,   4.1966,   7
  2780,'GALWAY      ', 110.0000,1,     0.000,     0.000,   9,   1,1.06260,  -6.7392,   1
  2781,'GALWAY      ', 110.0000,1,     0.000,     0.000,   9,   1,1.06260,  -6.7392,   1
  2801,'GOLAGH      ', 110.0000,1,     0.000,     0.000,   9,   1,1.04742, -12.4879,   4
  2821,'GORTAWEE    ', 110.0000,1,     0.000,     0.000,   9,   1,1.04459, -14.6360,   1
  2841,'GORMAN      ', 110.0000,1,     0.000,     0.000,  10,   1,1.03779, -13.3128,   1
  2842,'GORMAN      ', 220.0000,1,     0.000,     0.000,  10,   1,1.05747, -10.3195,   1
  2852,'GLANAGOW    ', 220.0000,1,     0.000,     0.000,   3,   1,1.05049,   3.4085,   1
  2861,'GRANGE C    ', 110.0000,1,     0.000,     0.000,   1,   1,1.03654, -12.4089,   2
  2870,'CLOGHER     ', 110.0000,1,     0.000,     0.000,   9,   1,1.04887, -12.4306,   1
  2871,'CLOGHER     ', 110.0000,1,     0.000,     0.000,   9,   1,1.04887, -12.4306,   1
  2881,'GLENLARA    ', 110.0000,1,     0.000,     0.000,   3,   1,1.02249,  -4.5784,   2
  2941,'HAROLDS     ', 110.0000,1,     0.000,     0.000,   1,   1,1.06682,  -9.8276,   2
  2951,'HEUSTON     ', 110.0000,1,     0.000,     0.000,   1,   1,1.06156, -10.0966,   2
  2962,'HUNTSTOW    ', 220.0000,1,     0.000,     0.000,   2,   1,1.07537,  -5.9103,   4
  2972,'HUNTSTOW    ', 220.0000,1,     0.000,     0.000,   2,   1,1.07575,  -5.4685,   4
  2981,'HARTNETT    ', 110.0000,1,     0.000,     0.000,   3,   1,1.05332,  -1.2842,   2
  3061,'INISCARR    ', 110.0000,1,     0.000,     0.000,   3,   1,1.05000,  -1.2991,   1
  3081,'INCH_CIT    ', 110.0000,1,     0.000,     0.000,   2,   1,1.06201, -10.0532,   2
  3082,'INCHICOR    ', 220.0000,1,     0.000,     0.000,   2,   1,1.07216,  -7.6467,   1
  3091,'INCH_COU    ', 110.0000,1,     0.000,     0.000,   2,   1,1.04151, -12.1930,   2
  3101,'IKERRIN     ', 110.0000,1,     0.000,     0.000,   5,   1,1.05699,  -6.3998,   2
  3122,'IRISHTOW    ', 220.0000,1,     0.000,     0.000,   2,   1,1.07500,  -6.7010,   1
  3190,'NORTH KE    ', 110.0000,1,     0.000,     0.000,   7,   1,1.05162,  -2.3444,   1
  3191,'NORTH KE    ', 110.0000,1,     0.000,     0.000,   7,   1,1.05222,   2.2247,   1
  3192,'NORTH KE    ', 220.0000,1,     0.000,     0.000,   7,   1,1.06663,   0.7782,   1
  3200,'KNOCKRAH    ', 110.0000,1,     0.000,     0.000,   3,   1,1.04697,  -0.6587,   1
  3201,'KNOCKRAH    ', 110.0000,1,     0.000,     0.000,   3,   1,1.04697,  -0.6587,   1
  3202,'KNOCKRAH    ', 220.0000,1,     0.000,     0.000,   3,   1,1.04965,   1.9604,   1
  3203,'KNOCKRAH    ', 220.0000,1,     0.000,     0.000,   3,   1,1.05262,   1.3367,   1
  3209,'KNOCKRAH    ', 110.0000,1,     0.000,     0.000,   3,   1,1.04697,  -0.6587,   1
  3211,'KNOCKAVA    ', 110.0000,1,     0.000,     0.000,   4,   1,1.06226,  -3.5006,   1
  3221,'KILBARRY    ', 110.0000,1,     0.000,     0.000,   3,   1,1.03947,  -1.5863,   1
  3241,'KILTEEL     ', 110.0000,1,     0.000,     0.000,   8,   1,1.05250, -10.6485,   2
  3251,'REAMORE     ', 110.0000,1,     0.000,     0.000,   7,   1,1.05148,  -2.5668,   1
  3261,'KILKENNY    ', 110.0000,1,     0.000,     0.000,   6,   1,1.05105,  -8.7773,   1
  3281,'KILLONAN    ', 110.0000,1,     0.000,     0.000,   7,   1,1.05160,  -3.7164,   1
  3282,'KILLONAN    ', 220.0000,1,     0.000,     0.000,   7,   1,1.04974,  -2.0868,   1
  3301,'KNOCKERA    ', 110.0000,1,     0.000,     0.000,   7,   1,1.04035,  -3.1189,   1
  3321,'KNOCKUMB    ', 110.0000,1,     0.000,     0.000,  10,   1,1.02830, -13.9053,   5
  3330,'BALLYNAH    ', 110.0000,1,     0.000,     0.000,   3,   1,1.05122,   3.7731,   1
  3331,'BALLYNAH    ', 110.0000,1,     0.000,     0.000,   3,   1,1.05122,   3.7731,   1
  3332,'BALLYNAH    ', 220.0000,1,     0.000,     0.000,   3,   1,1.05890,   2.4884,   1
  3341,'KELLIS      ', 110.0000,1,     0.000,     0.000,   6,   1,1.06362,  -7.2551,   1
  3342,'KELLIS      ', 220.0000,1,     0.000,     0.000,   6,   1,1.05798,  -4.8372,   1
  3361,'KILTOY      ', 110.0000,1,     0.000,     0.000,   9,   1,1.03942, -14.6224,   5
  3381,'KINNEGAD    ', 110.0000,1,     0.000,     0.000,   8,   1,1.04196, -10.1438,   1
  3391,'KNOCKACU    ', 110.0000,1,     0.000,     0.000,   3,   1,1.05000,   4.8610,   1
  3401,'KILLOTER    ', 110.0000,1,     0.000,     0.000,   5,   1,1.06009,  -5.6006,   1
  3421,'KILMORE     ', 110.0000,1,     0.000,     0.000,   1,   1,1.05838, -10.8530,   2
  3431,'KILMAHUD    ', 110.0000,1,     0.000,     0.000,   1,   1,1.03626, -12.4265,   1
  3461,'KILPADDO    ', 110.0000,1,     0.000,     0.000,   7,   1,1.05668,  -1.9032,   1
  3462,'KILPADDO    ', 220.0000,1,     0.000,     0.000,   7,   1,1.07127,  -0.4313,   1
  3472,'KILPADDO    ', 220.0000,1,     0.000,     0.000,   7,   1,1.07127,  -0.4313,   1
  3501,'LANESBOR    ', 110.0000,1,     0.000,     0.000,   9,   1,1.05000,  -8.3624,   1
  3521,'LOUTHA      ', 110.0000,1,     0.000,     0.000,  10,   1,1.06549, -13.0722,   1
  3522,'LOUTH       ', 220.0000,1,     0.000,     0.000,  10,   1,1.06264, -11.2297,   1
...
0 / END OF BUS DATA, BEGIN LOAD DATA
    10,'LD',1,   2,   1,    71.540,    11.870,     0.000,     0.000,     0.000,     0.000,   2
    11,'LD',1,   2,   1,    44.360,     8.820,     0.000,     0.000,     0.000,     0.000,   2
    12,'LD',1,   1,   1,    58.380,    19.190,     0.000,     0.000,     0.000,     0.000,   2
    13,'LD',1,   1,   1,    48.740,    16.180,     0.000,     0.000,     0.000,     0.000,   2
    14,'LD',1,   2,   1,    50.550,    16.620,     0.000,     0.000,     0.000,     0.000,   2
    15,'LD',1,   2,   1,    65.990,    21.680,     0.000,     0.000,     0.000,     0.000,   2
  1041,'LD',1,   3,   1,     0.760,     0.440,     0.000,     0.000,     0.000,     0.000,   2
  1101,'I ',1,   5,   2,    11.000,     6.000,     0.000,     0.000,     0.000,     0.000,   5
  1101,'MI',1,   5,   2,     5.620,    -1.020,     0.000,     0.000,     0.000,     0.000,   5
  4341,'I ',1,   3,   2,     1.300,     0.390,     0.000,     0.000,     0.000,     0.000,   5
 10204,'LD',1,   4,   1,    29.500,    11.710,     0.000,     0.000,     0.000,     0.000,   2
 10205,'LD',1,   4,   1,    29.500,    11.710,     0.000,     0.000,     0.000,     0.000,   2
 10470,'HL',1,   3,   1,     9.000,     3.240,     0.000,     0.000,     0.000,     0.000,   1
 10471,'HL',0,   3,   1,    11.990,     4.310,     0.000,     0.000,     0.000,     0.000,   3
 10602,'LD',1,   9,   1,     3.390,     1.310,     0.000,     0.000,     0.000,     0.000,   2
 10801,'LD',1,   7,   1,     5.880,     1.220,     0.000,     0.000,     0.000,     0.000,   2
 10901,'I ',1,   1,   2,     9.500,     3.120,     0.000,     0.000,     0.000,     0.000,   5
 10901,'LD',1,   1,   1,     6.140,     2.000,     0.000,     0.000,     0.000,     0.000,   2
 11201,'LD',1,   6,   1,     6.490,     2.130,     0.000,     0.000,     0.000,     0.000,   2
 11204,'LD',1,   6,   1,    14.630,     4.850,     0.000,     0.000,     0.000,     0.000,   2
 11404,'LD',1,   9,   1,    62.410,    22.450,     0.000,     0.000,     0.000,     0.000,   2
 12001,'LD',1,   1,   1,    17.000,     1.940,     0.000,     0.000,     0.000,     0.000,   2
 12201,'LD',1,   8,   1,    17.310,     2.640,     0.000,     0.000,     0.000,     0.000,   2
 12702,'LD',1,  10,   1,    15.890,     1.260,     0.000,     0.000,     0.000,     0.000,   2
 12804,'LD',1,   3,   1,    12.360,     0.720,     0.000,     0.000,     0.000,     0.000,   2
 13001,'LD',1,   6,   1,    13.590,     2.020,     0.000,     0.000,     0.000,     0.000,   2
 13204,'LD',1,   8,   1,    12.060,     4.050,     0.000,     0.000,     0.000,     0.000,   2
 13404,'LD',1,   9,   1,    15.300,     4.070,     0.000,     0.000,     0.000,     0.000,   2
 13501,'I ',1,   8,   2,     9.500,     2.850,     0.000,     0.000,     0.000,     0.000,   5
 13501,'LD',1,   8,   1,    11.890,     3.800,     0.000,     0.000,     0.000,     0.000,   2
 13601,'I ',1,   5,   2,     5.290,     1.460,     0.000,     0.000,     0.000,     0.000,   5
 13601,'MI',1,   5,   2,     3.920,     1.300,     0.000,     0.000,     0.000,     0.000,   5
 13604,'LD',1,   5,   1,    13.140,     3.550,     0.000,     0.000,     0.000,     0.000,   2
 13802,'LD',1,   3,   1,    18.070,     7.370,     0.000,     0.000,     0.000,     0.000,   2
 13804,'LD',1,   3,   1,    14.610,     2.360,     0.000,     0.000,     0.000,     0.000,   2
 14004,'LD',1,   9,   1,     7.970,     2.600,     0.000,     0.000,     0.000,     0.000,   2
 14204,'LD',1,   1,   1,    47.460,     3.510,     0.000,     0.000,     0.000,     0.000,   2
 14401,'LD',1,   3,   1,     5.180,     1.000,     0.000,     0.000,     0.000,     0.000,   2
 14404,'LD',1,   3,   1,    35.500,    12.380,     0.000,     0.000,     0.000,     0.000,   2
 14502,'I ',1,   1,   2,    23.750,     7.800,     0.000,     0.000,     0.000,     0.000,   5
 14604,'LD',1,   5,   1,    24.970,     7.250,     0.000,     0.000,     0.000,     0.000,   2
 14804,'LD',1,   5,   1,    40.750,     8.290,     0.000,     0.000,     0.000,     0.000,   2
 15001,'I ',1,   3,   2,     4.590,     1.700,     0.000,     0.000,     0.000,     0.000,   5
 15001,'MI',1,   3,   2,     1.580,     0.150,     0.000,     0.000,     0.000,     0.000,   5
 15402,'LD',1,   6,   1,    14.930,     4.910,     0.000,     0.000,     0.000,     0.000,   2
 15704,'LD',1,   9,   1,    14.130,     4.690,     0.000,     0.000,     0.000,     0.000,   2
 15801,'LD',1,   1,   1,    14.370,     3.660,     0.000,     0.000,     0.000,     0.000,   2
 16202,'LD',1,   3,   1,    11.040,     0.890,     0.000,     0.000,     0.000,     0.000,   2
 16604,'LD',1,   9,   1,    28.250,     6.660,     0.000,     0.000,     0.000,     0.000,   2
 16901,'LD',1,   1,   1,     5.960,     1.780,     0.000,     0.000,     0.000,     0.000,   2
 17004,'LD',1,   9,   1,    20.120,     6.620,     0.000,     0.000,     0.000,     0.000,   2
 17204,'LD',1,   5,   1,    23.790,     4.640,     0.000,     0.000,     0.000,     0.000,   2
 17404,'LD',1,   2,   1,    79.740,    13.050,     0.000,     0.000,     0.000,     0.000,   2
 17802,'I ',1,   7,   2,    49.000,    14.700,     0.000,     0.000,     0.000,     0.000,   5
 17901,'LD',1,   8,   1,    12.360,     4.090,     0.000,     0.000,     0.000,     0.000,   2
 18001,'LD',1,   1,   1,     3.800,     1.240,     0.000,     0.000,     0.000,     0.000,   2
 18004,'LD',1,   1,   1,    78.410,    21.190,     0.000,     0.000,     0.000,     0.000,   2
 18204,'LD',1,   9,   1,    30.360,    10.140,     0.000,     0.000,     0.000,     0.000,   2
 18304,'LD',1,   9,   1,    13.310,     4.370,     0.000,     0.000,     0.000,     0.000,   2
 18402,'LD',1,   6,   1,    15.950,     3.850,     0.000,     0.000,     0.000,     0.000,   2
 18404,'LD',1,   6,   1,    18.290,     5.120,     0.000,     0.000,     0.000,     0.000,   2
 18504,'I ',1,   2,   2,    19.000,     6.240,     0.000,     0.000,     0.000,     0.000,   5
 18504,'LD',1,   2,   1,    25.300,     8.310,     0.000,     0.000,     0.000,     0.000,   2
 18604,'LD',1,   9,   1,    31.180,     6.410,     0.000,     0.000,     0.000,     0.000,   2
 18701,'LD',1,   2,   1,    22.530,     4.170,     0.000,     0.000,     0.000,     0.000,   2
 18804,'LD',1,   3,   1,    19.330,     5.740,     0.000,     0.000,     0.000,     0.000,   2
 18901,'HL',0,  10,   1,     0.980,     0.350,     0.000,     0.000,     0.000,     0.000,   1
 19004,'LD',1,   6,   1,    52.780,    14.280,     0.000,     0.000,     0.000,     0.000,   2
 19204,'LD',1,   3,   1,    13.340,     3.290,     0.000,     0.000,     0.000,     0.000,   2
 19471,'HL',1,   8,   1,    11.970,     4.300,     0.000,     0.000,     0.000,     0.000,   4
 19504,'LD',1,   9,   1,    21.880,     4.760,     0.000,     0.000,     0.000,     0.000,   2
 19601,'LD',1,   3,   1,    22.150,     5.300,     0.000,     0.000,     0.000,     0.000,   2
 20201,'LD',1,   1,   1,    23.380,     7.610,     0.000,     0.000,     0.000,     0.000,   2
 20501,'LD',1,   3,   1,    19.020,     5.990,     0.000,     0.000,     0.000,     0.000,   2
 21004,'LD',1,  10,   1,    44.040,     7.350,     0.000,     0.000,     0.000,     0.000,   2
 21202,'LD',1,   4,   1,    10.270,     3.330,     0.000,     0.000,     0.000,     0.000,   2
 21204,'LD',1,   4,   1,    17.020,     3.810,     0.000,     0.000,     0.000,     0.000,   2
 21404,'LD',1,   5,   1,    42.570,     8.820,     0.000,     0.000,     0.000,     0.000,   2
 21604,'LD',1,   5,   1,    26.920,     6.620,     0.000,     0.000,     0.000,     0.000,   2
 21804,'LD',1,  10,   1,    79.970,    18.920,     0.000,     0.000,     0.000,     0.000,   2
 22204,'LD',1,   3,   1,    32.110,     8.200,     0.000,     0.000,     0.000,     0.000,   2
 22404,'LD',1,   5,   1,    17.450,     4.160,     0.000,     0.000,     0.000,     0.000,   2
 22501,'I ',1,   1,   2,    10.450,     3.434,     0.000,     0.000,     0.000,     0.000,   5
 22671,'HL',0,   8,   1,     0.300,     0.100,     0.000,     0.000,     0.000,     0.000,   1
 22672,'HL',0,   8,   1,     0.300,     0.100,     0.000,     0.000,     0.000,     0.000,   1
 22804,'LD',1,   9,   1,    24.440,     6.230,     0.000,     0.000,     0.000,     0.000,   2
 23001,'LD',1,   8,   1,     9.300,     0.630,     0.000,     0.000,     0.000,     0.000,   2
 23604,'LD',1,   4,   1,    59.140,    12.920,     0.000,     0.000,     0.000,     0.000,   2
 24104,'LD',1,   6,   1,    15.360,     5.040,     0.000,     0.000,     0.000,     0.000,   2
 24804,'LD',1,   2,   1,    57.290,    21.710,     0.000,     0.000,     0.000,     0.000,   2
 25604,'LD',1,   2,   1,    75.210,    14.690,     0.000,     0.000,     0.000,     0.000,   2
 26802,'I ',1,   9,   2,    10.440,     3.130,     0.000,     0.000,     0.000,     0.000,   5
 26802,'MI',1,   9,   2,     0.060,     0.020,     0.000,     0.000,     0.000,     0.000,   5
 27004,'LD',1,   1,   1,    70.020,    24.570,     0.000,     0.000,     0.000,     0.000,   2
 27204,'LD',1,   2,   1,    64.360,    20.240,     0.000,     0.000,     0.000,     0.000,   2
 27404,'LD',1,   6,   1,     1.850,     0.990,     0.000,     0.000,     0.000,     0.000,   2
 27474,'HL',0,   6,   1,     8.490,     3.050,     0.000,     0.000,     0.000,     0.000,   1
 27604,'LD',1,   1,   1,    55.620,    16.530,     0.000,     0.000,     0.000,     0.000,   2
 27801,'LD',1,   9,   1,    20.730,     6.230,     0.000,     0.000,     0.000,     0.000,   2
 27804,'LD',1,   9,   1,    65.980,    19.840,     0.000,     0.000,     0.000,     0.000,   2
 28201,'I ',1,   9,   2,    20.900,     6.270,     0.000,     0.000,     0.000,     0.000,   5
 28204,'LD',1,   9,   1,    11.040,     3.130,     0.000,     0.000,     0.000,     0.000,   2
 28571,'HL',1,   3,   1,     4.320,     1.550,     0.000,     0.000,     0.000,     0.000,   1
 28601,'I ',1,   1,   2,     9.000,     2.700,     0.000,     0.000,     0.000,     0.000,   5
 28601,'LD',1,   1,   1,    10.670,     1.300,     0.000,     0.000,     0.000,     0.000,   2
 28604,'LD',1,   1,   1,    49.470,     8.490,     0.000,     0.000,     0.000,     0.000,   2
 28611,'I ',1,   1,   2,     9.000,     2.700,     0.000,     0.000,     0.000,     0.000,   5
 28804,'LD',1,   3,   1,    16.690,     4.010,     0.000,     0.000,     0.000,     0.000,   2
 29401,'LD',1,   1,   1,    16.470,     5.130,     0.000,     0.000,     0.000,     0.000,   2
 29501,'LD',1,   1,   1,     5.420,     1.710,     0.000,     0.000,     0.000,     0.000,   2
 29672,'HL',1,   2,   1,     4.200,     1.510,     0.000,     0.000,     0.000,     0.000,   4
 29801,'LD',1,   3,   1,     8.470,     2.760,     0.000,     0.000,     0.000,     0.000,   2
 30804,'LD',1,   2,   1,    48.580,    16.040,     0.000,     0.000,     0.000,     0.000,   2
 31004,'LD',1,   5,   1,    26.310,     7.820,     0.000,     0.000,     0.000,     0.000,   2
 31271,'HL',1,   2,   1,     6.050,     2.180,     0.000,     0.000,     0.000,     0.000,   4
 32201,'LD',1,   3,   1,    16.220,     2.510,     0.000,     0.000,     0.000,     0.000,   2
 32204,'LD',1,   3,   1,    54.300,     7.340,     0.000,     0.000,     0.000,     0.000,   2
 32404,'LD',1,   8,   1,    32.630,    12.930,     0.000,     0.000,     0.000,     0.000,   2
 32604,'LD',1,   6,   1,    61.800,    23.770,     0.000,     0.000,     0.000,     0.000,   2
 33004,'LD',1,   7,   1,    33.000,     7.790,     0.000,     0.000,     0.000,     0.000,   2
 33201,'I ',1,  10,   2,    23.000,     6.900,     0.000,     0.000,     0.000,     0.000,   5
 33201,'MI',1,  10,   2,     6.440,     1.930,     0.000,     0.000,     0.000,     0.000,   5
 33801,'I ',1,   8,   2,    10.220,     3.060,     0.000,     0.000,     0.000,     0.000,   5
 33801,'MI',1,   8,   2,     1.500,     0.450,     0.000,     0.000,     0.000,     0.000,   5
 34001,'LD',1,   5,   1,    12.990,     3.270,     0.000,     0.000,     0.000,     0.000,   2
 34201,'LD',1,   1,   1,    20.920,     5.710,     0.000,     0.000,     0.000,     0.000,   2
 34301,'I ',1,   1,   2,    23.750,     7.120,     0.000,     0.000,     0.000,     0.000,   5
 35004,'LD',1,   9,   1,    12.110,     4.320,     0.000,     0.000,     0.000,     0.000,   2
 35074,'HL',1,   9,   1,     9.270,     3.330,     0.000,     0.000,     0.000,     0.000,   3
 35404,'LD',1,   7,   1,    73.280,    12.840,     0.000,     0.000,     0.000,     0.000,   2
 35604,'LD',1,  10,   1,    27.080,     6.790,     0.000,     0.000,     0.000,     0.000,   2
 35804,'LD',1,   9,   1,    61.940,    11.810,     0.000,     0.000,     0.000,     0.000,   2
 36001,'LD',1,   3,   1,    22.620,     6.070,     0.000,     0.000,     0.000,     0.000,   2
 36201,'I ',1,   5,   2,    16.600,     3.600,     0.000,     0.000,     0.000,     0.000,   5
 36201,'MI',1,   5,   2,     2.390,     2.100,     0.000,     0.000,     0.000,     0.000,   5
 37501,'LD',1,   1,   1,    19.230,     2.670,     0.000,     0.000,     0.000,     0.000,   2
 37601,'LD',1,   1,   1,    25.720,     5.070,     0.000,     0.000,     0.000,     0.000,   2
 37602,'I ',1,   1,   2,     5.000,     1.500,     0.000,     0.000,     0.000,     0.000,   5
 37602,'MI',1,   1,   2,     5.440,     1.630,     0.000,     0.000,     0.000,     0.000,   5
 38001,'LD',1,   3,   1,    14.780,     2.260,     0.000,     0.000,     0.000,     0.000,   2
 38004,'LD',1,   3,   1,    18.630,     4.270,     0.000,     0.000,     0.000,     0.000,   2
 38204,'LD',1,  10,   1,    47.400,    19.410,     0.000,     0.000,     0.000,     0.000,   2
 38601,'LD',1,   1,   1,     8.820,     1.410,     0.000,     0.000,     0.000,     0.000,   2
 38701,'LD',1,   1,   1,    12.470,     3.230,     0.000,     0.000,     0.000,     0.000,   2
 38804,'LD',1,   3,   1,     8.780,    -0.230,     0.000,     0.000,     0.000,     0.000,   2
 39471,'HL',1,   4,   1,    19.230,     6.920,     0.000,     0.000,     0.000,     0.000,   3
 39472,'HL',1,   4,   1,    19.230,     6.920,     0.000,     0.000,     0.000,     0.000,   3
 39473,'HL',1,   4,   1,    19.230,     6.920,     0.000,     0.000,     0.000,     0.000,   3
 39601,'LD',1,   3,   1,    16.230,     4.760,     0.000,     0.000,     0.000,     0.000,   2
 39675,'HL',0,   3,   1,     5.000,     1.800,     0.000,     0.000,     0.000,     0.000,   3
 39801,'I ',1,   7,   2,    22.000,     6.600,     0.000,     0.000,     0.000,     0.000,   5
 39801,'MI',1,   7,   2,     1.500,     0.450,     0.000,     0.000,     0.000,     0.000,   5
 40001,'LD',1,   9,   1,    13.550,     4.280,     0.000,     0.000,     0.000,     0.000,   2
 40004,'LD',1,   9,   1,    36.260,     8.880,     0.000,     0.000,     0.000,     0.000,   2
 40204,'LD',1,   3,   1,    21.810,     5.630,     0.000,     0.000,     0.000,     0.000,   2
 40404,'LD',1,   9,   1,    26.860,     4.750,     0.000,     0.000,     0.000,     0.000,   2
 40602,'I ',1,  10,   2,     5.180,     1.550,     0.000,     0.000,     0.000,     0.000,   5
 40602,'MI',1,  10,   2,     2.420,     0.730,     0.000,     0.000,     0.000,     0.000,   5
 40604,'LD',1,  10,   1,    28.010,     9.200,     0.000,     0.000,     0.000,     0.000,   2
 40801,'LD',1,   8,   1,    11.990,     2.090,     0.000,     0.000,     0.000,     0.000,   2
 41002,'I ',1,   1,   2,    18.000,     5.900,     0.000,     0.000,     0.000,     0.000,   5
 41102,'I ',1,   1,   2,    24.000,    11.630,     0.000,     0.000,     0.000,     0.000,   5
 42004,'LD',1,   8,   1,    27.160,     5.130,     0.000,     0.000,     0.000,     0.000,   2
 42102,'LD',1,   1,   1,    14.360,     2.240,     0.000,     0.000,     0.000,     0.000,   2
 42204,'LD',1,  10,   1,    67.510,    15.810,     0.000,     0.000,     0.000,     0.000,   2
 42501,'HL',0,   6,   1,     3.970,     1.430,     0.000,     0.000,     0.000,     0.000,   1
 42604,'LD',1,   7,   1,    27.110,     8.940,     0.000,     0.000,     0.000,     0.000,   2
 42802,'I ',1,   1,   2,    26.000,     7.800,     0.000,     0.000,     0.000,     0.000,   5
 43604,'LD',1,   7,   1,    25.780,     4.980,     0.000,     0.000,     0.000,     0.000,   2
 44001,'LD',1,   1,   1,    22.310,     2.600,     0.000,     0.000,     0.000,     0.000,   2
 44802,'LD',1,   8,   1,     9.040,     2.950,     0.000,     0.000,     0.000,     0.000,   2
 44804,'LD',1,   8,   1,    43.010,    12.020,     0.000,     0.000,     0.000,     0.000,   2
 44901,'LD',1,   1,   1,    19.890,     2.040,     0.000,     0.000,     0.000,     0.000,   2
 45001,'I ',1,  10,   2,    29.000,     9.100,     0.000,     0.000,     0.000,     0.000,   5
 45001,'MI',1,  10,   2,     3.290,     0.580,     0.000,     0.000,     0.000,     0.000,   5
 45101,'LD',1,   1,   1,    14.680,     2.100,     0.000,     0.000,     0.000,     0.000,   2
 46102,'I ',1,   7,   2,    61.000,    18.300,     0.000,     0.000,     0.000,     0.000,   5
 46210,'I ',1,   2,   2,    34.840,    10.450,     0.000,     0.000,     0.000,     0.000,   5
 46214,'I ',1,   2,   2,    34.840,    10.450,     0.000,     0.000,     0.000,     0.000,   5
 46224,'I ',1,   2,   2,    34.840,    10.450,     0.000,     0.000,     0.000,     0.000,   5
 46501,'LD',1,   1,   1,     0.870,     0.290,     0.000,     0.000,     0.000,     0.000,   2
 46511,'HL',1,   1,   1,     9.360,     3.360,     0.000,     0.000,     0.000,     0.000,   1
 46804,'LD',1,   7,   1,    24.270,     6.980,     0.000,     0.000,     0.000,     0.000,   2
 47004,'LD',1,   9,   1,    31.460,     9.450,     0.000,     0.000,     0.000,     0.000,   2
 47402,'I ',1,   2,   2,    15.200,     4.560,     0.000,     0.000,     0.000,     0.000,   5
 47601,'LD',1,   3,   1,     4.670,     1.080,     0.000,     0.000,     0.000,     0.000,   2
 49001,'I ',1,   6,   2,     2.290,     0.680,     0.000,     0.000,     0.000,     0.000,   5
 49474,'HL',1,   5,   1,    13.240,     4.760,     0.000,     0.000,     0.000,     0.000,   3
 49501,'LD',1,   9,   1,    25.820,     3.140,     0.000,     0.000,     0.000,     0.000,   2
 49504,'LD',1,   9,   1,    24.730,     7.040,     0.000,     0.000,     0.000,     0.000,   2
 49604,'LD',1,  10,   1,    55.860,    16.850,     0.000,     0.000,     0.000,     0.000,   2
 49804,'LD',1,   9,   1,    59.770,    13.060,     0.000,     0.000,     0.000,     0.000,   2
 50004,'LD',1,   9,   1,    21.820,     5.780,     0.000,     0.000,     0.000,     0.000,   2
 50276,'HL',1,   2,   1,     8.230,     2.960,     0.000,     0.000,     0.000,     0.000,   3
 50301,'LD',1,   1,   1,    12.360,     4.060,     0.000,     0.000,     0.000,     0.000,   2
 50573,'HL',1,   7,   1,     0.980,     0.350,     0.000,     0.000,     0.000,     0.000,   4
 50574,'HL',1,   7,   1,     0.980,     0.350,     0.000,     0.000,     0.000,     0.000,   4
 50604,'LD',1,   6,   1,    21.130,     4.710,     0.000,     0.000,     0.000,     0.000,   2
 50901,'LD',1,   7,   1,    15.740,     2.430,     0.000,     0.000,     0.000,     0.000,   2
 51301,'LD',1,   1,   1,    11.110,     1.630,     0.000,     0.000,     0.000,     0.000,   2
...
0 / END OF LOAD DATA, BEGIN GENERATOR DATA
 10271,'1 ',    21.000,    -0.061,    15.000,    -7.000,1.05000,  1021,    34.000,   0.00000,   0.22000,   0.00000,   0.00000,1.00000,1,   15.0,    21.000,     5.000,   3,1.0000
 10272,'2 ',    22.000,    -0.061,    15.000,    -7.000,1.05000,  1021,    34.000,   0.00000,   0.22000,   0.00000,   0.00000,1.00000,1,   15.0,    22.000,     5.000,   3,1.0000
 10273,'3 ',    19.000,    -0.061,    15.000,    -7.000,1.05000,  1021,    34.000,   0.00000,   0.22000,   0.00000,   0.00000,1.00000,1,   15.0,    19.000,     5.000,   3,1.0000
 10274,'4 ',    24.000,    -0.061,    15.000,    -7.000,1.05000,  1021,    34.000,   0.00000,   0.22000,   0.00000,   0.00000,1.00000,1,   15.0,    24.000,     5.000,   3,1.0000
 10275,'3 ',     2.298,     0.000,     0.000,     0.000,1.05000,     0,     8.350,   0.00920,   0.16210,   0.00000,   0.00000,1.00000,1,    2.3,     7.500,     0.000,   7,1.0000
 10276,'2 ',     0.202,     0.000,     0.000,     0.000,1.05000,     0,     0.850,   0.00730,   0.13500,   0.00000,   0.00000,1.00000,1,    0.2,     0.660,     0.000,   7,1.0000
 10470,'1 ',   330.000,   -21.089,   270.000,  -170.000,1.05000,  1062,   500.000,   0.00270,   0.18000,   0.00000,   0.00000,1.00000,1,  250.0,   443.000,   222.000,   1,1.0000
 10471,'1 ',   270.000,     0.000,   159.000,   -75.000,1.07500,  1062,   318.800,   0.00000,   0.22500,   0.00000,   0.00000,1.00000,0,  153.0,   270.000,    40.000,   3,1.0000
 10472,'11',    90.000,     0.000,    60.000,   -30.000,1.07500,  1062,   100.900,   0.00000,   0.12500,   0.00000,   0.00000,1.00000,0,   60.0,    90.000,    13.000,   3,1.0000
 10473,'12',    90.000,     0.000,    60.000,   -30.000,1.07500,  1062,   100.900,   0.00000,   0.12500,   0.00000,   0.00000,1.00000,0,   60.0,    90.000,    13.000,   3,1.0000
 10474,'14',    90.000,     0.000,    60.000,   -30.000,1.07500,  1062,   100.900,   0.00000,   0.12500,   0.00000,   0.00000,1.00000,0,   60.0,    90.000,    13.000,   3,1.0000
 10671,'2 ',     1.470,    -1.940,    -1.940,    -1.940,1.04000,     0,     4.800,   0.02040,   0.33060,   0.00000,   0.00000,1.00000,1,    1.5,     4.800,     0.000,   7,1.0000
 10672,'3 ',     1.532,    -2.000,    -2.000,    -2.000,1.04000,     0,     6.000,   0.02040,   0.33060,   0.00000,   0.00000,1.00000,1,    1.6,     5.000,     0.000,   7,1.0000
 10673,'1 ',     0.368,    -0.480,    -0.480,    -0.480,1.05000,     0,     1.200,   0.02040,   0.33060,   0.00000,   0.00000,1.00000,1,    0.4,     1.200,     0.000,   7,1.0000
 10674,'5 ',     1.409,    -1.770,    -1.770,    -2.300,1.04000,     0,     4.600,   0.02570,   0.73700,   0.00000,   0.00000,1.00000,1,    1.7,     4.600,     0.000,   7,1.0000
 11204,'1 ',     1.000,     0.000,     0.000,     0.000,1.00000,     0,     1.600,   0.00000,   0.20000,   0.01000,   0.06000,1.00000,0,  100.0,     1.000,     0.000,   2,1.0000
 11271,'1 ',     7.720,     0.000,     0.000,     0.000,1.04000,     0,    28.000,   0.00320,   0.12400,   0.00000,   0.00000,1.00000,1,    7.9,    25.200,     0.000,   7,1.0000
 11370,'1 ',     6.740,    -2.839,     5.590,    -5.590,1.05000,  2131,    30.000,   0.00000,   0.57860,   0.00000,   0.00000,1.00000,1,    5.7,    22.000,     0.000,   7,1.0000
 11371,'1 ',    15.623,    -9.961,    20.000,   -20.000,1.05000,  2131,    66.000,   0.00000,   0.57860,   0.00000,   0.00000,1.00000,1,   20.0,    51.000,     0.000,   7,1.0000
 11374,'DW',     1.225,    -0.618,     1.310,    -1.310,1.05000,  2131,     4.000,   0.00900,   0.14800,   0.00000,   0.00000,1.00000,1,    1.2,     4.000,     0.000,   7,1.0000
 11375,'DW',     1.103,    -0.558,     1.180,    -1.180,1.05000,  2131,     4.000,   0.00900,   0.14800,   0.00000,   0.00000,1.00000,1,    1.1,     3.600,     0.000,   7,1.0000
 12371,'1 ',     9.650,    -7.000,     7.000,    -7.000,1.05000,  1231,    32.000,   0.02570,   0.73700,   0.00000,   0.00000,1.00000,1,    7.0,    31.500,     0.000,   7,1.0000
 12372,'2 ',     3.217,     0.000,     0.000,     0.000,1.05000,  1231,    10.000,   0.02570,   0.73700,   0.00000,   0.00000,1.00000,1,    3.5,    10.500,     0.000,   7,1.0000
 12571,'1 ',     5.958,     0.000,     0.000,     0.000,1.05000,  1251,    25.050,   0.00920,   0.16210,   0.00000,   0.00000,1.00000,1,    6.4,    19.450,     0.000,   7,1.0000
 12572,'TW',     0.919,    -0.990,     0.990,    -0.990,1.05000,  1251,     3.340,   0.00920,   0.16210,   0.00000,   0.00000,1.00000,1,    1.0,     3.000,     0.000,   7,1.0000
 12573,'TW',     2.757,    -2.960,     2.960,    -2.960,1.05000,  1251,    10.020,   0.00920,   0.16210,   0.00000,   0.00000,1.00000,1,    3.0,     9.000,     0.000,   7,1.0000
 12871,'DW',     0.705,     0.000,     0.000,    -0.660,1.05000,  1281,     2.300,   0.02570,   0.73700,   0.00000,   0.00000,1.00000,1,    0.6,     2.300,     0.000,   7,1.0000
 12872,'DW',     2.573,     0.000,     0.000,    -2.760,1.05000,  1281,     9.200,   0.02570,   0.73700,   0.00000,   0.00000,1.00000,1,    2.6,     8.400,     0.000,   7,1.0000
 12873,'1 ',     5.989,     0.000,     0.000,     0.000,1.05000,  1281,    20.700,   0.02570,   0.73700,   0.00000,   0.00000,1.00000,1,    6.1,    19.550,     0.000,   7,1.0000
 12874,'1 ',     2.604,     0.000,     0.000,     0.000,1.05000,  1281,     8.500,   0.00210,   0.08600,   0.00000,   0.00000,1.00000,1,    2.7,     8.500,     0.000,   7,1.0000
 13170,'1 ',     7.337,     0.000,     0.000,     0.000,1.05000,  1311,    25.300,   0.02570,   0.73700,   0.00000,   0.00000,1.00000,1,    4.6,    23.950,     0.000,   7,1.0000
 13171,'1 ',     3.063,     0.000,     0.000,     0.000,1.05000,  1311,    10.000,   0.00900,   0.14800,   0.00000,   0.00000,1.00000,1,    6.0,    10.000,     0.000,   7,1.0000
 13173,'DW',     2.604,     0.000,     0.000,     0.000,1.05000,  1311,    10.500,   0.00900,   0.14800,   0.00000,   0.00000,1.00000,1,    6.0,     8.500,     0.000,   7,1.0000
 13174,'DW',    10.982,     0.000,     0.000,     0.000,1.05000,  1311,    36.000,   0.02570,   0.73700,   0.00000,   0.00000,1.00000,1,   11.0,    35.850,     0.000,   7,1.0000
 13175,'DW',     3.523,     0.000,     0.000,     0.000,1.05000,  1311,    11.500,   0.02570,   0.73700,   0.00000,   0.00000,1.00000,1,    3.7,    11.500,     0.000,   7,1.0000
 13176,'DW',     5.514,     0.000,     0.000,     0.000,1.05000,  1311,    18.750,   0.00900,   0.16600,   0.00000,   0.00000,1.00000,1,    5.6,    18.000,     0.000,   7,1.0000
 13434,'10',     4.300,     0.000,     0.000,     0.000,1.00000,     0,     4.500,   0.00000,   0.20000,   0.00000,   0.10000,1.00000,1,    1.0,     4.300,     0.000,   1,1.0000
 13471,'1 ',     0.202,     0.000,     0.000,     0.000,1.05000,  1341,     0.660,   0.02040,   0.33060,   0.00000,   0.00000,1.00000,1,    0.2,     0.660,     0.000,   7,1.0000
 13472,'DW',     0.781,     0.000,     0.000,    -0.840,1.05000,  1341,     2.700,   0.03020,   0.86600,   0.00000,   0.00000,1.00000,1,    0.8,     2.550,     0.000,   7,1.0000
 13473,'4 ',     3.063,     0.000,     0.000,     0.000,1.05000,  1341,    10.000,   0.00320,   0.12400,   0.00000,   0.00000,1.00000,1,    4.7,    10.000,     0.000,   7,1.0000
 13474,'5 ',     1.838,     0.000,     0.000,     0.000,1.05000,  1341,     6.250,   0.00900,   0.16600,   0.00000,   0.00000,1.00000,1,    1.9,     6.000,     0.000,   7,1.0000
 13475,'6 ',     2.344,     0.000,     0.000,     0.000,1.05000,  1341,     7.650,   0.00730,   0.13500,   0.00000,   0.00000,1.00000,1,    2.4,     7.650,     0.000,   7,1.0000
 13476,'3 ',     3.645,     0.000,     0.000,     0.000,1.05000,  1341,    11.500,   0.02570,   0.73700,   0.00000,   0.00000,1.00000,1,    3.7,    11.900,     0.000,   7,1.0000
 13477,'2 ',     0.781,     0.000,     0.000,     0.000,1.05000,  1341,     2.700,   0.03020,   0.86600,   0.00000,   0.00000,1.00000,1,    0.8,     2.550,     0.000,   7,1.0000
 13479,'9 ',     1.042,     0.000,     0.000,     0.000,1.00000,     0,     3.400,   0.00730,   0.13500,   0.00000,   0.00000,1.00000,1,    1.1,     3.400,     0.000,   7,1.0000
 14073,'3 ',     1.976,    -2.400,    -2.400,    -2.400,1.04000,     0,     7.611,   0.02040,   0.33060,   0.00000,   0.00000,1.00000,1,    2.0,     6.450,     0.000,   7,1.0000
 14075,'1 ',    10.000,     0.000,     0.000,     0.000,1.00000,     0,    10.000,   0.00000,   0.15500,   0.00000,   0.00000,1.00000,0,    3.0,    10.000,     1.000,   1,1.0000
 14471,'1 ',     1.225,     0.000,     0.000,     0.000,1.04000,     0,     4.000,   0.00320,   0.12400,   0.00000,   0.00000,1.00000,1,    1.4,     4.000,     0.000,   7,1.0000
 14472,'1 ',     0.085,     0.000,     0.000,     0.000,1.00000,     0,     0.850,   0.00210,   0.08600,   0.00000,   0.00000,1.00000,1,    0.1,     0.850,     0.000,   1,1.0000
 14604,'1 ',     4.800,     0.000,     0.000,     0.000,1.05000,     0,     7.000,   0.00000,   0.15000,   0.00000,   0.10000,1.00000,0,    2.0,     4.800,     0.000,   5,1.0000
 14871,'1 ',     0.521,     0.000,     0.000,     0.000,1.05000,     0,     4.600,   0.02570,   0.73700,   0.00000,   0.00000,1.00000,1,    0.5,     1.700,     0.000,   7,1.0000
 14902,'OH',     0.000,   279.000,   279.000,  -178.000,1.07500,  3522,   540.000,   0.00000,   0.32770,   0.00000,   0.00000,1.00000,1,  279.0,   450.000,   225.000,   4,1.0000
 15171,'TW',    14.092,     1.113,    15.120,   -15.120,1.05000,  1511,    46.000,   0.00900,   0.14800,   0.00000,   0.00000,1.00000,1,   15.3,    46.000,     0.000,   7,1.0000
 15172,'DW',     3.063,    -3.290,     3.290,    -3.290,1.00000,     0,    10.000,   0.00900,   0.14800,   0.00000,   0.00000,1.00000,1,    3.1,    10.000,     0.000,   7,1.0000
 15173,'DW',     0.781,    -0.840,     0.840,    -0.840,1.00000,     0,     2.550,   0.00730,   0.13500,   0.00000,   0.00000,1.00000,1,    0.8,     2.550,     0.000,   7,1.0000
 15174,'DW',     6.127,    -6.570,     6.570,    -6.570,1.00000,     0,    20.000,   0.00900,   0.14800,   0.00000,   0.00000,1.00000,1,    6.2,    20.000,     0.000,   7,1.0000
 15571,'DW',     1.823,    -1.960,     1.960,    -1.960,1.00000,     0,     5.950,   0.00730,   0.13500,   0.00000,   0.00000,1.00000,1,    1.9,     5.950,     0.000,   7,1.0000
 15572,'DW',     5.514,    -3.430,     5.920,    -5.920,1.00000,     0,    18.750,   0.00900,   0.16600,   0.00000,   0.00000,1.00000,1,    5.6,    18.000,     0.000,   7,1.0000
 15573,'1 ',     6.127,     0.000,     0.000,     0.000,1.04000,     0,    23.000,   0.02570,   0.73700,   0.00000,   0.00000,1.00000,1,    6.2,    20.000,     0.000,   7,1.0000
 15771,'1 ',     0.607,    -0.300,    -0.300,    -0.300,1.04000,  3581,     1.980,   0.02040,   0.33060,   0.00000,   0.00000,1.00000,1,    1.5,     1.980,     0.000,   7,1.0000
 15772,'1 ',     0.919,    -1.920,    -1.920,    -1.920,1.04000,  3581,     3.000,   0.02040,   0.33060,   0.00000,   0.00000,1.00000,1,    1.5,     3.000,     0.000,   7,1.0000
 16371,'1 ',     1.042,     0.000,     0.000,     0.000,1.00000,     0,     3.400,   0.00730,   0.13500,   0.00000,   0.00000,1.00000,1,    1.1,     3.400,     0.000,   7,1.0000
 16372,'2 ',     1.042,     0.000,     0.000,     0.000,1.00000,     0,     3.400,   0.00730,   0.13500,   0.00000,   0.00000,1.00000,1,    1.1,     3.400,     0.000,   7,1.0000
 16373,'3 ',     2.083,     0.000,     0.000,     0.000,1.00000,     0,     6.800,   0.00730,   0.13500,   0.00000,   0.00000,1.00000,1,    2.1,     6.800,     0.000,   7,1.0000
 16374,'4 ',     2.344,     0.000,     0.000,     0.000,1.00000,     0,     7.650,   0.00210,   0.08600,   0.00000,   0.00000,1.00000,1,    2.4,     7.650,     0.000,   7,1.0000
 16375,'1 ',     1.213,     0.000,     0.000,     0.000,1.00000,     0,     4.250,   0.00210,   0.08600,   0.00000,   0.00000,1.00000,1,    1.3,     3.960,     0.000,   7,1.0000
 16376,'6 ',     1.516,     0.000,     0.000,     0.000,1.00000,     0,     5.100,   0.00210,   0.08600,   0.00000,   0.00000,1.00000,1,    1.5,     4.950,     0.000,   7,1.0000
 16377,'1 ',     2.757,     0.000,     0.000,     0.000,1.00000,     0,     9.200,   0.02570,   0.73700,   0.00000,   0.00000,1.00000,1,    3.0,     9.000,     0.000,   7,1.0000
 16378,'1 ',     0.490,     0.000,     0.000,     0.000,1.00000,     0,     1.700,   0.00210,   0.08600,   0.00000,   0.00000,1.00000,1,    0.5,     1.600,     0.000,   7,1.0000
 16379,'2 ',     0.089,     0.000,     0.000,     0.000,1.00000,     0,     0.323,   0.00320,   0.12400,   0.00000,   0.00000,1.00000,1,    1.3,     0.290,     0.000,   7,1.0000
 16571,'1 ',    11.580,     0.000,     0.000,     0.000,1.05000,  1651,    40.000,   0.02570,   0.73700,   0.00000,   0.00000,1.00000,1,   12.6,    37.800,     0.000,   7,1.0000
 16670,'1 ',     1.379,    -1.117,     0.000,    -3.070,1.00000,     0,     4.500,   0.03020,   0.86600,   0.00000,   0.00000,1.00000,1,    2.9,     4.500,     0.000,   7,1.0000
 16671,'1 ',     1.042,     0.000,     0.000,     0.000,1.04000,     0,     3.400,   0.00730,   0.13500,   0.00000,   0.00000,1.00000,1,    1.1,     3.400,     0.000,   7,1.0000
 16672,'2 ',     0.487,    -0.560,    -0.560,    -0.560,1.04000,     0,     1.700,   0.00730,   0.13500,   0.00000,   0.00000,1.00000,1,    0.5,     1.590,     0.000,   7,1.0000
 16674,'1 ',     5.729,     0.000,     0.000,     0.000,1.04000,     0,    18.700,   0.00730,   0.13500,   0.00000,   0.00000,1.00000,1,    5.8,    18.700,     0.000,   7,1.0000
 16675,'2 ',     2.451,    -2.650,    -2.650,    -2.650,1.04000,     0,     8.000,   0.02690,   0.76900,   0.00000,   0.00000,1.00000,1,    2.7,     8.000,     0.000,   7,1.0000
 16677,'1 ',     1.042,     0.000,     0.000,     0.000,1.00000,     0,     3.400,   0.00210,   0.08600,   0.00000,   0.00000,1.00000,1,    1.1,     3.400,     0.000,   7,1.0000
 16679,'3 ',     1.042,     0.000,     0.000,     0.000,1.00000,     0,     3.400,   0.00210,   0.08600,   0.00000,   0.00000,1.00000,1,    1.1,     3.400,     0.000,   7,1.0000
 16873,'3 ',     8.000,    -1.000,     7.000,    -1.000,1.05000,  1681,    11.500,   0.00000,   0.25000,   0.00000,   0.00000,1.00000,1,    7.0,     8.000,     2.000,   3,1.0000
 17073,'3 ',    22.500,    -1.832,    23.000,   -25.000,1.05000,  1701,    35.500,   0.00410,   0.18000,   0.00000,   0.00000,1.00000,1,    7.0,    22.500,     5.000,   3,1.0000
 17074,'4 ',    22.500,    -1.832,    23.000,   -25.000,1.05000,  1701,    35.500,   0.00410,   0.18000,   0.00000,   0.00000,1.00000,1,    7.0,    22.500,     5.000,   3,1.0000
 17075,'7 ',     0.607,    -0.800,    -0.800,    -0.800,1.00000,     0,     1.980,   0.02040,   0.33060,   0.00000,   0.00000,1.00000,1,    0.6,     1.980,     0.000,   7,1.0000
 17077,'8 ',     0.006,     0.000,     0.000,     0.000,1.00000,     0,     1.200,   0.03020,   0.86600,   0.00000,   0.00000,1.00000,1,    0.3,     0.020,     0.000,   7,1.0000
 17671,'1 ',    10.000,    -1.832,     7.000,    -3.000,1.05000,  1701,    12.500,   0.00000,   0.15000,   0.00000,   0.00000,1.00000,1,    7.0,    10.000,     3.000,   3,1.0000
 17672,'2 ',    10.000,    -1.832,     7.000,    -3.000,1.05000,  1701,    12.500,   0.00000,   0.13500,   0.00000,   0.00000,1.00000,1,    7.0,    10.000,     3.000,   3,1.0000
 18271,'DW',     1.302,    -1.000,    -1.000,    -1.000,1.00000,     0,     4.250,   0.00730,   0.13500,   0.00000,   0.00000,1.00000,1,    1.2,     4.250,     0.000,   7,1.0000
 18471,'1 ',     1.529,     0.000,     0.000,     0.000,1.04000,     0,     5.200,   0.00550,   0.14300,   0.00000,   0.00000,1.00000,1,    1.5,     4.990,     0.000,   7,1.0000
 18472,'DW',     0.766,    -0.007,     0.000,    -0.820,1.00000,     0,     2.978,   0.00220,   0.41940,   0.00000,   0.00000,1.00000,1,    0.8,     2.500,     0.000,   7,1.0000
 18901,'OH',    58.000,     0.000,    30.000,   -21.320,1.07500,  1891,    68.235,   0.00000,   0.17000,   0.00000,   0.00000,1.00000,0,   30.0,    58.000,    20.000,   1,1.0000
 19081,'1 ',     0.781,     0.000,     0.000,     0.000,1.04000,     0,     2.550,   0.00730,   0.13500,   0.00000,   0.00000,1.00000,1,    0.8,     2.550,     0.000,   7,1.0000
 19082,'2 ',     0.521,     0.000,     0.000,     0.000,1.05000,     0,     1.700,   0.00730,   0.13500,   0.00000,   0.00000,1.00000,1,    0.5,     1.700,     0.000,   7,1.0000
 19083,'1 ',     1.529,     0.000,     0.000,     0.000,1.04000,     0,     6.900,   0.02570,   0.73700,   0.00000,   0.00000,1.00000,1,    1.6,     4.990,     0.000,   7,1.0000
 19084,'2 ',     1.379,    -1.500,    -1.500,    -1.500,1.04000,     0,     4.600,   0.02570,   0.73700,   0.00000,   0.00000,1.00000,1,    1.6,     4.500,     0.000,   7,1.0000
 19085,'1 ',     6.433,    -7.000,    -7.000,    -7.000,1.04000,     0,    23.824,   0.00220,   0.41940,   0.00000,   0.00000,1.00000,1,    6.6,    21.000,     0.000,   7,1.0000
 19101,'OH',    98.400,     0.000,    51.000,   -36.170,1.07500,  1911,   108.240,   0.00000,   0.14400,   0.00279,   0.11997,1.00000,0,   51.0,    98.400,    34.000,   1,1.0000
 19317,'SC',     0.000,    -6.000,     6.000,    -6.000,1.05000,  1931,     6.000,   0.00000,9999.00000,   0.00000,   0.00000,1.00000,1,    6.0,     0.000,     0.000,   1,1.0000
 19371,'1 ',     7.276,     0.000,     0.000,     0.000,1.05000,  1931,    29.780,   0.00220,   0.41940,   0.00000,   0.00000,1.00000,1,   11.0,    23.750,     0.000,   7,1.0000
 19372,'2 ',     3.385,     0.000,     0.000,     0.000,1.05000,  1931,    11.050,   0.00730,   0.13500,   0.00000,   0.00000,1.00000,1,   11.6,    11.050,     0.000,   7,1.0000
 19471,'1 ',   133.000,    78.957,    94.000,   -50.000,1.07500,  1941,   153.000,   0.00000,   0.15300,   0.00000,   0.00000,1.00000,1,   75.0,   133.500,    60.000,   4,1.0000
 19472,'5 ',    58.274,     0.000,    38.000,   -23.000,1.07500,  1941,    66.625,   0.00200,   0.14450,   0.00000,   0.00000,1.00000,0,   41.0,    58.274,    19.700,   1,1.0000
 19473,'3 ',    58.274,     0.000,    40.000,   -23.000,1.07500,  1941,    66.625,   0.00200,   0.14450,   0.00000,   0.00000,1.00000,0,   41.0,    58.274,    19.700,   1,1.0000
 19601,'2 ',     0.585,     0.000,     0.000,     0.000,1.00000,     0,     6.500,   0.00000,   0.21900,   0.00000,   0.00000,1.00000,1,  100.0,     5.850,     0.000,   2,1.0000
 19771,'1 ',    13.020,     0.000,     0.000,     0.000,1.05000,  1971,    46.875,   0.00900,   0.16600,   0.00000,   0.00000,1.00000,1,    8.5,    42.500,     0.000,   7,1.0000
 19772,'TW',     2.604,    -1.377,     2.790,    -2.790,1.05000,  1971,     8.500,   0.00730,   0.13500,   0.00000,   0.00000,1.00000,1,    2.8,     8.500,     0.000,   7,1.0000
 19773,'TW',     9.190,    -4.848,     9.860,    -9.860,1.05000,  1971,    38.714,   0.00220,   0.41940,   0.00000,   0.00000,1.00000,1,    9.9,    30.000,     0.000,   7,1.0000
 19971,'1 ',     6.127,    -6.700,     6.700,    -6.700,1.05000,  1991,    20.700,   0.02570,   0.73700,   0.00000,   0.00000,1.00000,1,    6.7,    20.000,     0.000,   7,1.0000
 19972,'2 ',     0.705,     0.000,     0.000,     0.000,1.05000,  1991,     2.300,   0.02570,   0.73700,   0.00000,   0.00000,1.00000,1,    0.7,     2.300,     0.000,   7,1.0000
 19973,'3 ',     0.705,     0.000,     0.000,     0.000,1.05000,  1991,     2.300,   0.02570,   0.73700,   0.00000,   0.00000,1.00000,1,    1.1,     2.300,     0.000,   7,1.0000
 19974,'4 ',     4.932,    -4.000,     4.000,    -4.000,1.05000,  1991,    16.100,   0.02570,   0.73700,   0.00000,   0.00000,1.00000,1,    4.0,    16.100,     0.000,   7,1.0000
 20101,'OH',     0.000,    21.000,    21.000,   -14.000,1.07500,  2011,    41.200,   0.00000,   0.18000,   0.00000,   0.00000,1.00000,1,   21.0,    35.000,   -38.000,   1,1.0000
 21071,'2 ',     0.153,     0.000,     0.000,     0.000,1.05000,     0,     0.850,   0.00730,   0.13500,   0.00000,   0.00000,1.00000,1,    0.2,     0.500,     0.000,   7,1.0000
 21371,'TW',     8.731,    -4.731,     9.500,    -9.500,1.05000,  2131,    31.730,   0.00920,   0.16210,   0.00000,   0.00000,1.00000,1,    9.5,    28.500,     0.000,   7,1.0000
 21372,'2 ',     5.361,    -2.889,     5.800,    -5.800,1.05000,  2131,    23.380,   0.00920,   0.16210,   0.00000,   0.00000,1.00000,1,    5.8,    17.500,     0.000,   7,1.0000
 21871,'1 ',     0.521,     0.000,     0.000,     0.000,1.01000,     0,     1.700,   0.00730,   0.13500,   0.00000,   0.00000,1.00000,1,    0.5,     1.700,     0.000,   7,1.0000
 21872,'2 ',     0.766,    -0.990,    -0.990,    -1.280,1.01000,     0,     2.700,   0.03020,   0.86600,   0.00000,   0.00000,1.00000,1,    0.9,     2.500,     0.000,   7,1.0000
 21873,'1 ',     1.274,     0.000,     0.000,     0.000,1.00000,     0,     1.600,   0.02040,   0.33060,   0.00000,   0.00000,1.00000,0,  100.0,     1.274,     0.000,   1,1.0000
 22272,'DW',     5.208,    -3.547,     0.000,    -5.590,1.00000,     0,    16.000,   0.00900,   0.14800,   0.00000,   0.00000,1.00000,1,    5.3,    17.000,     0.000,   7,1.0000
 22273,'DW',     1.379,    -0.843,     0.000,    -1.480,1.00000,     0,     4.000,   0.02690,   0.76900,   0.00000,   0.00000,1.00000,1,    1.4,     4.500,     0.000,   7,1.0000
 22274,'2 ',     1.820,    -2.400,    -2.400,    -2.400,1.00000,     0,     5.940,   0.02040,   0.33060,   0.00000,   0.00000,1.00000,1,    1.9,     5.940,     0.000,   7,1.0000
 22275,'4 ',     1.302,     0.000,     0.000,     0.000,1.00000,     0,     4.250,   0.00730,   0.13500,   0.00000,   0.00000,1.00000,1,    1.3,     4.250,     0.000,   7,1.0000
 22276,'3 ',     1.823,     0.000,     0.000,     0.000,1.00000,     0,     6.680,   0.00920,   0.16210,   0.00000,   0.00000,1.00000,1,    1.9,     5.950,     0.000,   7,1.0000
 22277,'DW',     0.934,    -0.888,     0.000,    -0.990,1.00000,     0,     3.340,   0.00920,   0.16210,   0.00000,   0.00000,1.00000,1,    0.9,     3.050,     0.000,   7,1.0000
 22278,'1 ',     1.415,    -1.000,    -1.000,    -1.000,1.00000,     0,     4.620,   0.02040,   0.33060,   0.00000,   0.00000,1.00000,1,    1.4,     4.620,     0.000,   7,1.0000
 22292,'5 ',     6.000,     0.000,     0.000,     0.000,1.00000,     0,     6.000,   0.00000,   0.20000,   0.00000,   0.10000,1.00000,0,    2.0,     6.000,     0.000,   1,1.0000
 22371,'1 ',    18.227,     0.000,     0.000,     0.000,1.05000,  2231,    59.500,   0.00730,   0.13500,   0.00000,   0.00000,1.00000,1,   12.0,    59.500,     0.000,   7,1.0000
 22471,'1 ',     0.781,     0.000,     0.000,     0.000,1.04000,     0,     2.550,   0.00730,   0.13500,   0.00000,   0.00000,1.00000,1,    0.8,     2.550,     0.000,   7,1.0000
 22472,'2 ',     1.302,     0.000,     0.000,     0.000,1.04000,     0,     4.250,   0.00730,   0.13500,   0.00000,   0.00000,1.00000,1,    1.3,     4.250,     0.000,   7,1.0000
 22473,'1 ',     1.302,    -1.500,    -1.500,    -1.500,1.01000,     0,     4.250,   0.00730,   0.13500,   0.00000,   0.00000,1.00000,1,    1.3,     4.250,     0.000,   7,1.0000
 22671,'1 ',    52.100,     0.000,    32.600,   -22.700,1.05000,  2261,    62.000,   0.00000,   0.17900,   0.00000,   0.00000,1.00000,0,   32.6,    52.100,     1.200,   3,1.0000
...